L6/1726536/Chaves.dss
! ==========================================================
! CHAVES — geradas de UNSEMT (Line com Switch=Y)
! ==========================================================
! 22 chave(s) omitida(s): os dois PACs fora da rede de MT deste alimentador, o que criaria ilha flutuante — ex.: 1818118317, 349256845, 1817839216
New Line.1902826021 Phases=1 Bus1=node_2296985180.1 Bus2=node_2296985211.1 Switch=Y r1=1e-4 x1=1e-4 r0=1e-4 x0=1e-4 normamps=9999
New Line.1941824561 Phases=3 Bus1=node_2300356806.1.2.3 Bus2=node_2300356807.1.2.3 Switch=Y r1=1e-4 x1=1e-4 r0=1e-4 x0=1e-4 normamps=9999
New Line.514682103 Phases=3 Bus1=node_795003063.1.2.3 Bus2=node_2269284964.1.2.3 Switch=Y r1=1e-4 x1=1e-4 r0=1e-4 x0=1e-4 normamps=9999
New Line.514682051 Phases=1 Bus1=node_795003318.2 Bus2=node_2269285036.2 Switch=Y r1=1e-4 x1=1e-4 r0=1e-4 x0=1e-4 normamps=9999
New Line.1923596385 Phases=1 Bus1=node_2240888551.3 Bus2=node_2240888833.3 Switch=Y r1=1e-4 x1=1e-4 r0=1e-4 x0=1e-4 normamps=9999
New Line.1985245160 Phases=1 Bus1=node_2304727332.1 Bus2=node_2304727556.1 Switch=Y r1=1e-4 x1=1e-4 r0=1e-4 x0=1e-4 normamps=9999
New Line.2219431320 Phases=3 Bus1=100_2219431347.1.2.3 Bus2=segm_2219431310.1.2.3 Switch=Y r1=1e-4 x1=1e-4 r0=1e-4 x0=1e-4 normamps=9999
New Line.2304830301 Phases=1 Bus1=node_2577937338.1 Bus2=node_2577937348.1 Switch=Y r1=1e-4 x1=1e-4 r0=1e-4 x0=1e-4 normamps=9999
New Line.1475886459 Phases=3 Bus1=node_1179918634.1.2.3 Bus2=node_1179918635.1.2.3 Switch=Y r1=1e-4 x1=1e-4 r0=1e-4 x0=1e-4 normamps=9999
New Line.1475886503 Phases=3 Bus1=node_1783062107.1.2.3 Bus2=node_1783062108.1.2.3 Switch=Y r1=1e-4 x1=1e-4 r0=1e-4 x0=1e-4 normamps=9999
New Line.1438949709 Phases=1 Bus1=node_1735197363.1 Bus2=node_1735197364.1 Switch=Y r1=1e-4 x1=1e-4 r0=1e-4 x0=1e-4 normamps=9999
New Line.337931792 Phases=3 Bus1=node_532867625.1.2.3 Bus2=node_532867626.1.2.3 Switch=Y r1=1e-4 x1=1e-4 r0=1e-4 x0=1e-4 normamps=9999
New Line.1438949745 Phases=1 Bus1=node_1735197465.1 Bus2=node_1735197466.1 Switch=Y r1=1e-4 x1=1e-4 r0=1e-4 x0=1e-4 normamps=9999
New Line.1415027728 Phases=1 Bus1=node_1712383024.3 Bus2=node_1712383091.3 Switch=Y r1=1e-4 x1=1e-4 r0=1e-4 x0=1e-4 normamps=9999
New Line.345523997 Phases=1 Bus1=node_1859186561.3 Bus2=node_1859186966.3 Switch=Y r1=1e-4 x1=1e-4 r0=1e-4 x0=1e-4 normamps=9999
New Line.1544264127 Phases=1 Bus1=100_1544264158.1 Bus2=100_1544264157.1 Switch=Y r1=1e-4 x1=1e-4 r0=1e-4 x0=1e-4 normamps=9999
New Line.2596702930 Phases=3 Bus1=node_2749836202.1.2.3 Bus2=node_2749836260.1.2.3 Switch=Y r1=1e-4 x1=1e-4 r0=1e-4 x0=1e-4 normamps=9999
New Line.2596702977 Phases=3 Bus1=node_2749837323.1.2.3 Bus2=node_2749836341.1.2.3 Switch=Y r1=1e-4 x1=1e-4 r0=1e-4 x0=1e-4 normamps=9999
New Line.1583348559 Phases=3 Bus1=node_1903625678.1.2.3 Bus2=node_1903625679.1.2.3 Switch=Y r1=1e-4 x1=1e-4 r0=1e-4 x0=1e-4 normamps=9999
New Line.1596954705 Phases=3 Bus1=node_1931985019.1.2.3 Bus2=node_1931985020.1.2.3 Switch=Y r1=1e-4 x1=1e-4 r0=1e-4 x0=1e-4 normamps=9999
New Line.1596954543 Phases=3 Bus1=node_1931984635.1.2.3 Bus2=node_1931984636.1.2.3 Switch=Y r1=1e-4 x1=1e-4 r0=1e-4 x0=1e-4 normamps=9999
New Line.1098581709 Phases=3 Bus1=100_1398568696.1.2.3 Bus2=100_1398568695.1.2.3 Switch=Y r1=1e-4 x1=1e-4 r0=1e-4 x0=1e-4 normamps=9999
New Line.1098581689 Phases=3 Bus1=segm_1098581671.1.2.3 Bus2=100_1398568695.1.2.3 Switch=Y r1=1e-4 x1=1e-4 r0=1e-4 x0=1e-4 normamps=9999
New Line.1596954315 Phases=3 Bus1=node_1931984095.1.2.3 Bus2=node_1931984096.1.2.3 Switch=Y r1=1e-4 x1=1e-4 r0=1e-4 x0=1e-4 normamps=9999
New Line.1098581702 Phases=3 Bus1=100_1398568696.1.2.3 Bus2=segm_1098581716.1.2.3 Switch=Y r1=1e-4 x1=1e-4 r0=1e-4 x0=1e-4 normamps=9999
New Line.1612983626 Phases=3 Bus1=node_1934393159.1.2.3 Bus2=node_1934393160.1.2.3 Switch=Y r1=1e-4 x1=1e-4 r0=1e-4 x0=1e-4 normamps=9999
New Line.352232981 Phases=1 Bus1=node_1709896917.1 Bus2=node_1709896918.1 Switch=Y r1=1e-4 x1=1e-4 r0=1e-4 x0=1e-4 normamps=9999
New Line.1596955469 Phases=3 Bus1=node_1933395046.1.2.3 Bus2=node_1933395047.1.2.3 Switch=Y r1=1e-4 x1=1e-4 r0=1e-4 x0=1e-4 normamps=9999
New Line.1596954513 Phases=1 Bus1=node_1931984546.1 Bus2=node_1931984547.1 Switch=Y r1=1e-4 x1=1e-4 r0=1e-4 x0=1e-4 normamps=9999
New Line.1098581725 Phases=3 Bus1=node_1413662093.1.2.3 Bus2=node_1413662094.1.2.3 Switch=Y r1=1e-4 x1=1e-4 r0=1e-4 x0=1e-4 normamps=9999
New Line.1650703813 Phases=1 Bus1=100_1650703838.2 Bus2=100_1650703837.2 Switch=Y r1=1e-4 x1=1e-4 r0=1e-4 x0=1e-4 normamps=9999
New Line.1712030803 Phases=3 Bus1=node_2038151533.1.2.3 Bus2=node_2038151637.1.2.3 Switch=Y r1=1e-4 x1=1e-4 r0=1e-4 x0=1e-4 normamps=9999
New Line.1662855979 Phases=3 Bus1=node_2548364805.1.2.3 Bus2=node_2548364806.1.2.3 Switch=Y r1=1e-4 x1=1e-4 r0=1e-4 x0=1e-4 normamps=9999
New Line.345739036 Phases=1 Bus1=node_1910125797.1 Bus2=node_1910125798.1 Switch=Y r1=1e-4 x1=1e-4 r0=1e-4 x0=1e-4 normamps=9999
New Line.342007173 Phases=1 Bus1=node_535715878.3 Bus2=node_535715879.3 Switch=Y r1=1e-4 x1=1e-4 r0=1e-4 x0=1e-4 normamps=9999
New Line.339770342 Phases=1 Bus1=node_533906400.2 Bus2=node_533906401.2 Switch=Y r1=1e-4 x1=1e-4 r0=1e-4 x0=1e-4 normamps=9999
New Line.339295527 Phases=1 Bus1=node_533551203.3 Bus2=node_533551204.3 Switch=Y r1=1e-4 x1=1e-4 r0=1e-4 x0=1e-4 normamps=9999
New Line.341842694 Phases=3 Bus1=node_535316571.1.2.3 Bus2=node_535316572.1.2.3 Switch=Y r1=1e-4 x1=1e-4 r0=1e-4 x0=1e-4 normamps=9999
New Line.339770310 Phases=1 Bus1=node_533906304.3 Bus2=node_533906305.3 Switch=Y r1=1e-4 x1=1e-4 r0=1e-4 x0=1e-4 normamps=9999
New Line.342007166 Phases=1 Bus1=node_535715857.2 Bus2=node_535715858.2 Switch=Y r1=1e-4 x1=1e-4 r0=1e-4 x0=1e-4 normamps=9999
New Line.339295520 Phases=1 Bus1=node_533551182.3 Bus2=node_533551183.3 Switch=Y r1=1e-4 x1=1e-4 r0=1e-4 x0=1e-4 normamps=9999
New Line.339770367 Phases=3 Bus1=node_533906475.1.2.3 Bus2=node_533906476.1.2.3 Switch=Y r1=1e-4 x1=1e-4 r0=1e-4 x0=1e-4 normamps=9999
New Line.341574545 Phases=1 Bus1=node_535204258.2 Bus2=node_535204259.2 Switch=Y r1=1e-4 x1=1e-4 r0=1e-4 x0=1e-4 normamps=9999
New Line.337930024 Phases=3 Bus1=node_532864312.1.2.3 Bus2=node_532864311.1.2.3 Switch=Y r1=1e-4 x1=1e-4 r0=1e-4 x0=1e-4 normamps=9999
New Line.340531148 Phases=3 Bus1=node_534495972.1.2.3 Bus2=node_534495973.1.2.3 Switch=Y r1=1e-4 x1=1e-4 r0=1e-4 x0=1e-4 normamps=9999
New Line.341214839 Phases=1 Bus1=node_534683992.3 Bus2=node_534683993.3 Switch=Y r1=1e-4 x1=1e-4 r0=1e-4 x0=1e-4 normamps=9999
New Line.2409715675 Phases=1 Bus1=node_431345595.1 Bus2=node_2623617100.1 Switch=Y r1=1e-4 x1=1e-4 r0=1e-4 x0=1e-4 normamps=9999
New Line.339295358 Phases=3 Bus1=node_533456300.1.2.3 Bus2=node_533456301.1.2.3 Switch=Y r1=1e-4 x1=1e-4 r0=1e-4 x0=1e-4 normamps=9999
New Line.340529292 Phases=1 Bus1=node_534349271.2 Bus2=node_534349272.2 Switch=Y r1=1e-4 x1=1e-4 r0=1e-4 x0=1e-4 normamps=9999
New Line.339298690 Phases=3 Bus1=node_533670001.1.2.3 Bus2=node_533670002.1.2.3 Switch=Y r1=1e-4 x1=1e-4 r0=1e-4 x0=1e-4 normamps=9999
New Line.339297102 Phases=3 Bus1=node_533666953.1.2.3 Bus2=node_533666954.1.2.3 Switch=Y r1=1e-4 x1=1e-4 r0=1e-4 x0=1e-4 normamps=9999
New Line.339770097 Phases=3 Bus1=node_533905797.1.2.3 Bus2=node_533905798.1.2.3 Switch=Y r1=1e-4 x1=1e-4 r0=1e-4 x0=1e-4 normamps=9999
New Line.342006705 Phases=3 Bus1=node_535594462.1.2.3 Bus2=node_535594463.1.2.3 Switch=Y r1=1e-4 x1=1e-4 r0=1e-4 x0=1e-4 normamps=9999
New Line.338403277 Phases=3 Bus1=node_533099459.1.2.3 Bus2=node_533099460.1.2.3 Switch=Y r1=1e-4 x1=1e-4 r0=1e-4 x0=1e-4 normamps=9999
New Line.339294952 Phases=3 Bus1=node_533455358.1.2.3 Bus2=node_533455359.1.2.3 Switch=Y r1=1e-4 x1=1e-4 r0=1e-4 x0=1e-4 normamps=9999
New Line.345704225 Phases=1 Bus1=node_539943819.1 Bus2=node_539943820.1 Switch=Y r1=1e-4 x1=1e-4 r0=1e-4 x0=1e-4 normamps=9999
New Line.340212098 Phases=3 Bus1=node_534146796.1.2.3 Bus2=node_534146797.1.2.3 Switch=Y r1=1e-4 x1=1e-4 r0=1e-4 x0=1e-4 normamps=9999
New Line.345468072 Phases=1 Bus1=node_539443067.1 Bus2=node_539443068.1 Switch=Y r1=1e-4 x1=1e-4 r0=1e-4 x0=1e-4 normamps=9999
New Line.340970843 Phases=3 Bus1=node_534499202.1.2.3 Bus2=node_534499203.1.2.3 Switch=Y r1=1e-4 x1=1e-4 r0=1e-4 x0=1e-4 normamps=9999
New Line.337408214 Phases=3 Bus1=node_532553544.1.2.3 Bus2=node_532553545.1.2.3 Switch=Y r1=1e-4 x1=1e-4 r0=1e-4 x0=1e-4 normamps=9999
New Line.337408203 Phases=3 Bus1=node_532553523.1.2.3 Bus2=node_532553524.1.2.3 Switch=Y r1=1e-4 x1=1e-4 r0=1e-4 x0=1e-4 normamps=9999
New Line.340970873 Phases=3 Bus1=node_534499256.1.2.3 Bus2=node_534499257.1.2.3 Switch=Y r1=1e-4 x1=1e-4 r0=1e-4 x0=1e-4 normamps=9999
New Line.345467984 Phases=3 Bus1=node_539442851.1.2.3 Bus2=node_539442852.1.2.3 Switch=Y r1=1e-4 x1=1e-4 r0=1e-4 x0=1e-4 normamps=9999
New Line.341843766 Phases=3 Bus1=node_535318575.1.2.3 Bus2=node_535318574.1.2.3 Switch=Y r1=1e-4 x1=1e-4 r0=1e-4 x0=1e-4 normamps=9999
New Line.345704300 Phases=3 Bus1=node_539944008.1.2.3 Bus2=node_539944009.1.2.3 Switch=Y r1=1e-4 x1=1e-4 r0=1e-4 x0=1e-4 normamps=9999
New Line.345546701 Phases=3 Bus1=node_539557212.1.2.3 Bus2=node_539557213.1.2.3 Switch=Y r1=1e-4 x1=1e-4 r0=1e-4 x0=1e-4 normamps=9999
New Line.342006863 Phases=3 Bus1=node_535594786.1.2.3 Bus2=node_535594787.1.2.3 Switch=Y r1=1e-4 x1=1e-4 r0=1e-4 x0=1e-4 normamps=9999
New Line.345467960 Phases=1 Bus1=node_539442791.1 Bus2=node_539442792.1 Switch=Y r1=1e-4 x1=1e-4 r0=1e-4 x0=1e-4 normamps=9999
New Line.342006768 Phases=3 Bus1=node_535594597.1.2.3 Bus2=node_535594598.1.2.3 Switch=Y r1=1e-4 x1=1e-4 r0=1e-4 x0=1e-4 normamps=9999
New Line.339295018 Phases=3 Bus1=node_533455496.1.2.3 Bus2=node_533455497.1.2.3 Switch=Y r1=1e-4 x1=1e-4 r0=1e-4 x0=1e-4 normamps=9999
New Line.338969609 Phases=3 Bus1=node_533301379.1.2.3 Bus2=node_533301380.1.2.3 Switch=Y r1=1e-4 x1=1e-4 r0=1e-4 x0=1e-4 normamps=9999
New Line.345607920 Phases=1 Bus1=node_539700859.1 Bus2=node_539700860.1 Switch=Y r1=1e-4 x1=1e-4 r0=1e-4 x0=1e-4 normamps=9999
New Line.345739072 Phases=1 Bus1=node_540038258.1 Bus2=node_540038259.1 Switch=Y r1=1e-4 x1=1e-4 r0=1e-4 x0=1e-4 normamps=9999
New Line.345704254 Phases=1 Bus1=node_539943894.1 Bus2=node_539943895.1 Switch=Y r1=1e-4 x1=1e-4 r0=1e-4 x0=1e-4 normamps=9999
New Line.345774284 Phases=1 Bus1=node_540142366.1 Bus2=node_540142367.1 Switch=Y r1=1e-4 x1=1e-4 r0=1e-4 x0=1e-4 normamps=9999
New Line.341843315 Phases=3 Bus1=node_535317751.1.2.3 Bus2=node_535317752.1.2.3 Switch=Y r1=1e-4 x1=1e-4 r0=1e-4 x0=1e-4 normamps=9999
New Line.337408131 Phases=3 Bus1=node_1947981753.1.2.3 Bus2=node_1947981754.1.2.3 Switch=Y r1=1e-4 x1=1e-4 r0=1e-4 x0=1e-4 normamps=9999
New Line.345796723 Phases=1 Bus1=node_540182288.1 Bus2=node_540182289.1 Switch=Y r1=1e-4 x1=1e-4 r0=1e-4 x0=1e-4 normamps=9999
New Line.341841622 Phases=3 Bus1=node_535206514.1.2.3 Bus2=node_535206513.1.2.3 Switch=Y r1=1e-4 x1=1e-4 r0=1e-4 x0=1e-4 normamps=9999
New Line.339296808 Phases=3 Bus1=node_533554563.1.2.3 Bus2=node_533554564.1.2.3 Switch=Y r1=1e-4 x1=1e-4 r0=1e-4 x0=1e-4 normamps=9999
New Line.341574216 Phases=3 Bus1=node_535096195.1.2.3 Bus2=node_535096196.1.2.3 Switch=Y r1=1e-4 x1=1e-4 r0=1e-4 x0=1e-4 normamps=9999
New Line.345546736 Phases=1 Bus1=node_539557295.1 Bus2=node_539557296.1 Switch=Y r1=1e-4 x1=1e-4 r0=1e-4 x0=1e-4 normamps=9999
New Line.345739042 Phases=1 Bus1=node_540038180.1 Bus2=node_540038181.1 Switch=Y r1=1e-4 x1=1e-4 r0=1e-4 x0=1e-4 normamps=9999
New Line.340970833 Phases=3 Bus1=node_534499184.1.2.3 Bus2=node_534499185.1.2.3 Switch=Y r1=1e-4 x1=1e-4 r0=1e-4 x0=1e-4 normamps=9999
New Line.345739078 Phases=1 Bus1=node_540038276.3 Bus2=node_540038277.3 Switch=Y r1=1e-4 x1=1e-4 r0=1e-4 x0=1e-4 normamps=9999
New Line.345774291 Phases=1 Bus1=node_540142387.1 Bus2=node_540142388.1 Switch=Y r1=1e-4 x1=1e-4 r0=1e-4 x0=1e-4 normamps=9999
New Line.337930535 Phases=3 Bus1=node_532865281.1.2.3 Bus2=node_532865282.1.2.3 Switch=Y r1=1e-4 x1=1e-4 r0=1e-4 x0=1e-4 normamps=9999
New Line.341843272 Phases=3 Bus1=node_535317676.1.2.3 Bus2=node_535317677.1.2.3 Switch=Y r1=1e-4 x1=1e-4 r0=1e-4 x0=1e-4 normamps=9999
New Line.342006625 Phases=3 Bus1=node_535594306.1.2.3 Bus2=node_535594307.1.2.3 Switch=Y r1=1e-4 x1=1e-4 r0=1e-4 x0=1e-4 normamps=9999
New Line.345739030 Phases=1 Bus1=node_540038144.1 Bus2=node_540038145.1 Switch=Y r1=1e-4 x1=1e-4 r0=1e-4 x0=1e-4 normamps=9999
New Line.337408323 Phases=1 Bus1=node_532553775.1 Bus2=node_532553776.1 Switch=Y r1=1e-4 x1=1e-4 r0=1e-4 x0=1e-4 normamps=9999
New Line.345774297 Phases=1 Bus1=node_540142405.1 Bus2=node_540142406.1 Switch=Y r1=1e-4 x1=1e-4 r0=1e-4 x0=1e-4 normamps=9999
New Line.345468025 Phases=1 Bus1=node_539442950.1 Bus2=node_539442951.1 Switch=Y r1=1e-4 x1=1e-4 r0=1e-4 x0=1e-4 normamps=9999
New Line.345607961 Phases=1 Bus1=node_539700982.1 Bus2=node_539700983.1 Switch=Y r1=1e-4 x1=1e-4 r0=1e-4 x0=1e-4 normamps=9999
New Line.340212086 Phases=3 Bus1=node_534146768.1.2.3 Bus2=node_534146769.1.2.3 Switch=Y r1=1e-4 x1=1e-4 r0=1e-4 x0=1e-4 normamps=9999
New Line.345468018 Phases=1 Bus1=node_539442929.3 Bus2=node_539442930.3 Switch=Y r1=1e-4 x1=1e-4 r0=1e-4 x0=1e-4 normamps=9999
New Line.341570875 Phases=3 Bus1=node_534894837.1.2.3 Bus2=node_534894838.1.2.3 Switch=Y r1=1e-4 x1=1e-4 r0=1e-4 x0=1e-4 normamps=9999
New Line.338403404 Phases=1 Bus1=node_533099702.1 Bus2=node_533099703.1 Switch=Y r1=1e-4 x1=1e-4 r0=1e-4 x0=1e-4 normamps=9999
New Line.345774320 Phases=1 Bus1=node_540142462.1 Bus2=node_540142463.1 Switch=Y r1=1e-4 x1=1e-4 r0=1e-4 x0=1e-4 normamps=9999
New Line.339295139 Phases=3 Bus1=node_533455739.1.2.3 Bus2=node_533455740.1.2.3 Switch=Y r1=1e-4 x1=1e-4 r0=1e-4 x0=1e-4 normamps=9999
New Line.340209459 Phases=3 Bus1=node_534025335.1.2.3 Bus2=node_534025336.1.2.3 Switch=Y r1=1e-4 x1=1e-4 r0=1e-4 x0=1e-4 normamps=9999
New Line.336288545 Phases=3 Bus1=node_532300921.1.2.3 Bus2=node_532300920.1.2.3 Switch=Y r1=1e-4 x1=1e-4 r0=1e-4 x0=1e-4 normamps=9999
New Line.336287647 Phases=3 Bus1=node_532299293.1.2.3 Bus2=node_532299292.1.2.3 Switch=Y r1=1e-4 x1=1e-4 r0=1e-4 x0=1e-4 normamps=9999
New Line.345607926 Phases=1 Bus1=node_539700877.2 Bus2=node_539700878.2 Switch=Y r1=1e-4 x1=1e-4 r0=1e-4 x0=1e-4 normamps=9999
New Line.336287979 Phases=3 Bus1=node_532299900.1.2.3 Bus2=node_532299901.1.2.3 Switch=Y r1=1e-4 x1=1e-4 r0=1e-4 x0=1e-4 normamps=9999
New Line.338405292 Phases=1 Bus1=node_533297946.1 Bus2=node_533297947.1 Switch=Y r1=1e-4 x1=1e-4 r0=1e-4 x0=1e-4 normamps=9999
New Line.339297842 Phases=3 Bus1=node_533668459.1.2.3 Bus2=node_533668460.1.2.3 Switch=Y r1=1e-4 x1=1e-4 r0=1e-4 x0=1e-4 normamps=9999
New Line.336287796 Phases=3 Bus1=node_532299573.1.2.3 Bus2=node_532299574.1.2.3 Switch=Y r1=1e-4 x1=1e-4 r0=1e-4 x0=1e-4 normamps=9999
New Line.339770054 Phases=3 Bus1=node_533905712.1.2.3 Bus2=node_533905713.1.2.3 Switch=Y r1=1e-4 x1=1e-4 r0=1e-4 x0=1e-4 normamps=9999
New Line.339294942 Phases=3 Bus1=node_533455340.1.2.3 Bus2=node_533455341.1.2.3 Switch=Y r1=1e-4 x1=1e-4 r0=1e-4 x0=1e-4 normamps=9999
New Line.339295100 Phases=3 Bus1=node_533455646.1.2.3 Bus2=node_533455647.1.2.3 Switch=Y r1=1e-4 x1=1e-4 r0=1e-4 x0=1e-4 normamps=9999
New Line.341574247 Phases=3 Bus1=node_535096252.1.2.3 Bus2=node_535096253.1.2.3 Switch=Y r1=1e-4 x1=1e-4 r0=1e-4 x0=1e-4 normamps=9999
New Line.341570865 Phases=3 Bus1=node_534894819.1.2.3 Bus2=node_534894820.1.2.3 Switch=Y r1=1e-4 x1=1e-4 r0=1e-4 x0=1e-4 normamps=9999
New Line.341570855 Phases=3 Bus1=node_534894801.1.2.3 Bus2=node_534894802.1.2.3 Switch=Y r1=1e-4 x1=1e-4 r0=1e-4 x0=1e-4 normamps=9999
New Line.341574276 Phases=3 Bus1=node_535096303.1.2.3 Bus2=node_535096304.1.2.3 Switch=Y r1=1e-4 x1=1e-4 r0=1e-4 x0=1e-4 normamps=9999
New Line.345656180 Phases=3 Bus1=node_539831407.1.2.3 Bus2=node_539831408.1.2.3 Switch=Y r1=1e-4 x1=1e-4 r0=1e-4 x0=1e-4 normamps=9999
New Line.339295028 Phases=3 Bus1=node_533455514.1.2.3 Bus2=node_533455515.1.2.3 Switch=Y r1=1e-4 x1=1e-4 r0=1e-4 x0=1e-4 normamps=9999
New Line.339294979 Phases=3 Bus1=node_533455415.1.2.3 Bus2=node_533455416.1.2.3 Switch=Y r1=1e-4 x1=1e-4 r0=1e-4 x0=1e-4 normamps=9999
New Line.345656219 Phases=1 Bus1=node_539831500.1 Bus2=node_539831501.1 Switch=Y r1=1e-4 x1=1e-4 r0=1e-4 x0=1e-4 normamps=9999
New Line.345796681 Phases=3 Bus1=node_540182210.1.2.3 Bus2=node_540182211.1.2.3 Switch=Y r1=1e-4 x1=1e-4 r0=1e-4 x0=1e-4 normamps=9999
New Line.341574206 Phases=3 Bus1=node_535096177.1.2.3 Bus2=node_535096178.1.2.3 Switch=Y r1=1e-4 x1=1e-4 r0=1e-4 x0=1e-4 normamps=9999
New Line.340210061 Phases=3 Bus1=node_534026973.1.2.3 Bus2=node_534026974.1.2.3 Switch=Y r1=1e-4 x1=1e-4 r0=1e-4 x0=1e-4 normamps=9999
New Line.341843526 Phases=3 Bus1=node_535318140.1.2.3 Bus2=node_535318141.1.2.3 Switch=Y r1=1e-4 x1=1e-4 r0=1e-4 x0=1e-4 normamps=9999
New Line.337929339 Phases=3 Bus1=node_532725160.1.2.3 Bus2=node_532725161.1.2.3 Switch=Y r1=1e-4 x1=1e-4 r0=1e-4 x0=1e-4 normamps=9999
New Line.339298731 Phases=3 Bus1=node_533670076.1.2.3 Bus2=node_533670077.1.2.3 Switch=Y r1=1e-4 x1=1e-4 r0=1e-4 x0=1e-4 normamps=9999
New Line.345468031 Phases=3 Bus1=node_539442968.1.2.3 Bus2=node_539442969.1.2.3 Switch=Y r1=1e-4 x1=1e-4 r0=1e-4 x0=1e-4 normamps=9999
New Line.337408161 Phases=3 Bus1=node_532553433.1.2.3 Bus2=node_532553434.1.2.3 Switch=Y r1=1e-4 x1=1e-4 r0=1e-4 x0=1e-4 normamps=9999
New Line.341843295 Phases=3 Bus1=node_535317715.1.2.3 Bus2=node_535317716.1.2.3 Switch=Y r1=1e-4 x1=1e-4 r0=1e-4 x0=1e-4 normamps=9999
New Line.341844250 Phases=3 Bus1=node_535319474.1.2.3 Bus2=node_535319475.1.2.3 Switch=Y r1=1e-4 x1=1e-4 r0=1e-4 x0=1e-4 normamps=9999
New Line.342006646 Phases=3 Bus1=node_535594345.1.2.3 Bus2=node_535594346.1.2.3 Switch=Y r1=1e-4 x1=1e-4 r0=1e-4 x0=1e-4 normamps=9999
New Line.341217762 Phases=3 Bus1=node_534893006.1.2.3 Bus2=node_534893007.1.2.3 Switch=Y r1=1e-4 x1=1e-4 r0=1e-4 x0=1e-4 normamps=9999
New Line.345774230 Phases=1 Bus1=node_540133664.1 Bus2=node_540133665.1 Switch=Y r1=1e-4 x1=1e-4 r0=1e-4 x0=1e-4 normamps=9999
New Line.338403355 Phases=3 Bus1=node_533099609.1.2.3 Bus2=node_533099610.1.2.3 Switch=Y r1=1e-4 x1=1e-4 r0=1e-4 x0=1e-4 normamps=9999
New Line.345607910 Phases=3 Bus1=node_539700841.1.2.3 Bus2=node_539700842.1.2.3 Switch=Y r1=1e-4 x1=1e-4 r0=1e-4 x0=1e-4 normamps=9999
New Line.1739684095 Phases=1 Bus1=node_2064825869.1 Bus2=node_2064825870.1 Switch=Y r1=1e-4 x1=1e-4 r0=1e-4 x0=1e-4 normamps=9999
New Line.1623660290 Phases=1 Bus1=node_1944203148.1 Bus2=node_1944203169.1 Switch=Y r1=1e-4 x1=1e-4 r0=1e-4 x0=1e-4 normamps=9999
New Line.1814086243 Phases=3 Bus1=node_2137557628.1.2.3 Bus2=node_2137557629.1.2.3 Switch=Y r1=1e-4 x1=1e-4 r0=1e-4 x0=1e-4 normamps=9999
New Line.1821566375 Phases=1 Bus1=node_2144689944.3 Bus2=node_2144689945.3 Switch=Y r1=1e-4 x1=1e-4 r0=1e-4 x0=1e-4 normamps=9999
New Line.1794669439 Phases=3 Bus1=node_2169768237.1.2.3 Bus2=node_2169768238.1.2.3 Switch=Y r1=1e-4 x1=1e-4 r0=1e-4 x0=1e-4 normamps=9999
New Line.1820432769 Phases=1 Bus1=node_2143586414.1 Bus2=node_2143586415.1 Switch=Y r1=1e-4 x1=1e-4 r0=1e-4 x0=1e-4 normamps=9999
New Line.1869500787 Phases=3 Bus1=node_2190516828.1.2.3 Bus2=node_2190516829.1.2.3 Switch=Y r1=1e-4 x1=1e-4 r0=1e-4 x0=1e-4 normamps=9999
New Line.345585986 Phases=1 Bus1=node_2190515406.3 Bus2=node_2190515407.3 Switch=Y r1=1e-4 x1=1e-4 r0=1e-4 x0=1e-4 normamps=9999
New Line.337931732 Phases=3 Bus1=node_532867517.1.2.3 Bus2=node_532867518.1.2.3 Switch=Y r1=1e-4 x1=1e-4 r0=1e-4 x0=1e-4 normamps=9999
New Line.342006889 Phases=1 Bus1=node_535594840.1 Bus2=node_535594841.1 Switch=Y r1=1e-4 x1=1e-4 r0=1e-4 x0=1e-4 normamps=9999
New Line.341214790 Phases=1 Bus1=node_1530128292.1 Bus2=node_1530128291.1 Switch=Y r1=1e-4 x1=1e-4 r0=1e-4 x0=1e-4 normamps=9999
New Line.340528998 Phases=3 Bus1=node_534348593.1.2.3 Bus2=node_534348594.1.2.3 Switch=Y r1=1e-4 x1=1e-4 r0=1e-4 x0=1e-4 normamps=9999
New Line.340971639 Phases=1 Bus1=node_534587181.1 Bus2=node_534587182.1 Switch=Y r1=1e-4 x1=1e-4 r0=1e-4 x0=1e-4 normamps=9999
New Line.339294921 Phases=3 Bus1=node_533455301.1.2.3 Bus2=node_533455302.1.2.3 Switch=Y r1=1e-4 x1=1e-4 r0=1e-4 x0=1e-4 normamps=9999
New Line.339770034 Phases=3 Bus1=node_533905676.1.2.3 Bus2=node_533905677.1.2.3 Switch=Y r1=1e-4 x1=1e-4 r0=1e-4 x0=1e-4 normamps=9999
New Line.342006667 Phases=3 Bus1=node_535594384.1.2.3 Bus2=node_535594385.1.2.3 Switch=Y r1=1e-4 x1=1e-4 r0=1e-4 x0=1e-4 normamps=9999
New Line.345739048 Phases=1 Bus1=node_540038198.1 Bus2=node_540038199.1 Switch=Y r1=1e-4 x1=1e-4 r0=1e-4 x0=1e-4 normamps=9999
New Line.339770044 Phases=3 Bus1=node_533905694.1.2.3 Bus2=node_533905695.1.2.3 Switch=Y r1=1e-4 x1=1e-4 r0=1e-4 x0=1e-4 normamps=9999
New Line.338403267 Phases=3 Bus1=node_533099441.1.2.3 Bus2=node_533099442.1.2.3 Switch=Y r1=1e-4 x1=1e-4 r0=1e-4 x0=1e-4 normamps=9999
New Line.338403317 Phases=3 Bus1=node_533099531.1.2.3 Bus2=node_533099532.1.2.3 Switch=Y r1=1e-4 x1=1e-4 r0=1e-4 x0=1e-4 normamps=9999
New Line.337408151 Phases=3 Bus1=node_532553415.1.2.3 Bus2=node_532553416.1.2.3 Switch=Y r1=1e-4 x1=1e-4 r0=1e-4 x0=1e-4 normamps=9999
New Line.345774327 Phases=3 Bus1=node_540142483.1.2.3 Bus2=node_540142484.1.2.3 Switch=Y r1=1e-4 x1=1e-4 r0=1e-4 x0=1e-4 normamps=9999
New Line.340970853 Phases=3 Bus1=node_534499220.1.2.3 Bus2=node_534499221.1.2.3 Switch=Y r1=1e-4 x1=1e-4 r0=1e-4 x0=1e-4 normamps=9999
New Line.345704311 Phases=1 Bus1=node_539944029.1 Bus2=node_539944030.1 Switch=Y r1=1e-4 x1=1e-4 r0=1e-4 x0=1e-4 normamps=9999
New Line.341574196 Phases=3 Bus1=node_535096159.1.2.3 Bus2=node_535096160.1.2.3 Switch=Y r1=1e-4 x1=1e-4 r0=1e-4 x0=1e-4 normamps=9999
New Line.342006604 Phases=3 Bus1=node_535594267.1.2.3 Bus2=node_535594268.1.2.3 Switch=Y r1=1e-4 x1=1e-4 r0=1e-4 x0=1e-4 normamps=9999
New Line.345546742 Phases=1 Bus1=node_539557313.1 Bus2=node_539557314.1 Switch=Y r1=1e-4 x1=1e-4 r0=1e-4 x0=1e-4 normamps=9999
New Line.338403373 Phases=3 Bus1=node_533099645.1.2.3 Bus2=node_533099646.1.2.3 Switch=Y r1=1e-4 x1=1e-4 r0=1e-4 x0=1e-4 normamps=9999
New Line.345607950 Phases=1 Bus1=node_539700949.3 Bus2=node_539700950.3 Switch=Y r1=1e-4 x1=1e-4 r0=1e-4 x0=1e-4 normamps=9999
New Line.345774236 Phases=1 Bus1=node_540142270.1 Bus2=node_540142271.1 Switch=Y r1=1e-4 x1=1e-4 r0=1e-4 x0=1e-4 normamps=9999
New Line.345607955 Phases=1 Bus1=node_539700964.3 Bus2=node_539700965.3 Switch=Y r1=1e-4 x1=1e-4 r0=1e-4 x0=1e-4 normamps=9999
New Line.345546762 Phases=1 Bus1=node_539557373.3 Bus2=node_539557374.3 Switch=Y r1=1e-4 x1=1e-4 r0=1e-4 x0=1e-4 normamps=9999
New Line.345656225 Phases=1 Bus1=node_539831518.1 Bus2=node_539831519.1 Switch=Y r1=1e-4 x1=1e-4 r0=1e-4 x0=1e-4 normamps=9999
New Line.339770139 Phases=3 Bus1=node_533905887.1.2.3 Bus2=node_533905888.1.2.3 Switch=Y r1=1e-4 x1=1e-4 r0=1e-4 x0=1e-4 normamps=9999
New Line.345704283 Phases=1 Bus1=node_539943969.1 Bus2=node_539943970.1 Switch=Y r1=1e-4 x1=1e-4 r0=1e-4 x0=1e-4 normamps=9999
New Line.341844211 Phases=3 Bus1=node_535319405.1.2.3 Bus2=node_535319406.1.2.3 Switch=Y r1=1e-4 x1=1e-4 r0=1e-4 x0=1e-4 normamps=9999
New Line.341844271 Phases=1 Bus1=node_535319513.3 Bus2=node_535319514.3 Switch=Y r1=1e-4 x1=1e-4 r0=1e-4 x0=1e-4 normamps=9999
New Line.337408121 Phases=3 Bus1=node_532553361.1.2.3 Bus2=node_532553362.1.2.3 Switch=Y r1=1e-4 x1=1e-4 r0=1e-4 x0=1e-4 normamps=9999
New Line.336287999 Phases=3 Bus1=node_532299936.1.2.3 Bus2=node_532299937.1.2.3 Switch=Y r1=1e-4 x1=1e-4 r0=1e-4 x0=1e-4 normamps=9999
New Line.338403307 Phases=3 Bus1=node_533099513.1.2.3 Bus2=node_533099514.1.2.3 Switch=Y r1=1e-4 x1=1e-4 r0=1e-4 x0=1e-4 normamps=9999
New Line.345656190 Phases=3 Bus1=node_539831425.1.2.3 Bus2=node_539831426.1.2.3 Switch=Y r1=1e-4 x1=1e-4 r0=1e-4 x0=1e-4 normamps=9999
New Line.339770064 Phases=3 Bus1=node_533905730.1.2.3 Bus2=node_533905731.1.2.3 Switch=Y r1=1e-4 x1=1e-4 r0=1e-4 x0=1e-4 normamps=9999
New Line.341574185 Phases=3 Bus1=node_535096138.1.2.3 Bus2=node_535096139.1.2.3 Switch=Y r1=1e-4 x1=1e-4 r0=1e-4 x0=1e-4 normamps=9999
New Line.338404277 Phases=3 Bus1=node_533196429.1.2.3 Bus2=node_533196430.1.2.3 Switch=Y r1=1e-4 x1=1e-4 r0=1e-4 x0=1e-4 normamps=9999
New Line.345796746 Phases=3 Bus1=node_540182345.1.2.3 Bus2=node_540182346.1.2.3 Switch=Y r1=1e-4 x1=1e-4 r0=1e-4 x0=1e-4 normamps=9999
New Line.345774303 Phases=3 Bus1=node_540142423.1.2.3 Bus2=node_540142424.1.2.3 Switch=Y r1=1e-4 x1=1e-4 r0=1e-4 x0=1e-4 normamps=9999
New Line.340212119 Phases=3 Bus1=node_534146835.1.2.3 Bus2=node_534146836.1.2.3 Switch=Y r1=1e-4 x1=1e-4 r0=1e-4 x0=1e-4 normamps=9999
New Line.345739024 Phases=1 Bus1=node_540038126.1 Bus2=node_540038127.1 Switch=Y r1=1e-4 x1=1e-4 r0=1e-4 x0=1e-4 normamps=9999
New Line.336288631 Phases=3 Bus1=node_532301064.1.2.3 Bus2=node_532301065.1.2.3 Switch=Y r1=1e-4 x1=1e-4 r0=1e-4 x0=1e-4 normamps=9999
New Line.337931742 Phases=3 Bus1=node_532867535.1.2.3 Bus2=node_532867536.1.2.3 Switch=Y r1=1e-4 x1=1e-4 r0=1e-4 x0=1e-4 normamps=9999
New Line.345607938 Phases=1 Bus1=node_539700913.1 Bus2=node_539700914.1 Switch=Y r1=1e-4 x1=1e-4 r0=1e-4 x0=1e-4 normamps=9999
New Line.345607932 Phases=1 Bus1=node_539700895.1 Bus2=node_539700896.1 Switch=Y r1=1e-4 x1=1e-4 r0=1e-4 x0=1e-4 normamps=9999
New Line.340970903 Phases=3 Bus1=node_534499310.1.2.3 Bus2=node_534499311.1.2.3 Switch=Y r1=1e-4 x1=1e-4 r0=1e-4 x0=1e-4 normamps=9999
New Line.337931723 Phases=3 Bus1=node_532867502.1.2.3 Bus2=node_532867503.1.2.3 Switch=Y r1=1e-4 x1=1e-4 r0=1e-4 x0=1e-4 normamps=9999
New Line.345739065 Phases=1 Bus1=node_540038237.2 Bus2=node_540038238.2 Switch=Y r1=1e-4 x1=1e-4 r0=1e-4 x0=1e-4 normamps=9999
New Line.345546756 Phases=1 Bus1=node_539557355.1 Bus2=node_539557356.1 Switch=Y r1=1e-4 x1=1e-4 r0=1e-4 x0=1e-4 normamps=9999
New Line.340529180 Phases=1 Bus1=node_534349007.1 Bus2=node_534349008.1 Switch=Y r1=1e-4 x1=1e-4 r0=1e-4 x0=1e-4 normamps=9999
New Line.340529070 Phases=3 Bus1=node_534348750.1.2.3 Bus2=node_534348749.1.2.3 Switch=Y r1=1e-4 x1=1e-4 r0=1e-4 x0=1e-4 normamps=9999
New Line.339295038 Phases=3 Bus1=node_533455532.1.2.3 Bus2=node_533455533.1.2.3 Switch=Y r1=1e-4 x1=1e-4 r0=1e-4 x0=1e-4 normamps=9999
New Line.345656213 Phases=1 Bus1=node_539831482.1 Bus2=node_539831483.1 Switch=Y r1=1e-4 x1=1e-4 r0=1e-4 x0=1e-4 normamps=9999
New Line.345704325 Phases=3 Bus1=node_432138356.1.2.3 Bus2=node_539944072.1.2.3 Switch=Y r1=1e-4 x1=1e-4 r0=1e-4 x0=1e-4 normamps=9999
New Line.339296291 Phases=1 Bus1=node_533553150.1 Bus2=node_533553151.1 Switch=Y r1=1e-4 x1=1e-4 r0=1e-4 x0=1e-4 normamps=9999
New Line.339295048 Phases=3 Bus1=node_533455550.1.2.3 Bus2=node_533455551.1.2.3 Switch=Y r1=1e-4 x1=1e-4 r0=1e-4 x0=1e-4 normamps=9999
New Line.345468042 Phases=3 Bus1=node_539442989.1.2.3 Bus2=node_539442990.1.2.3 Switch=Y r1=1e-4 x1=1e-4 r0=1e-4 x0=1e-4 normamps=9999
New Line.339295079 Phases=3 Bus1=node_533455607.1.2.3 Bus2=node_533455608.1.2.3 Switch=Y r1=1e-4 x1=1e-4 r0=1e-4 x0=1e-4 normamps=9999
New Line.345704318 Phases=1 Bus1=node_539944050.1 Bus2=node_539944051.1 Switch=Y r1=1e-4 x1=1e-4 r0=1e-4 x0=1e-4 normamps=9999
...
